https://elrectoive.github.io/?Promotions=WA9HTdvXC
https://elrectoive.github.io/?Promotions=EM7PYd3uC
https://elrectoive.github.io/?Promotions=87hQXoA6s
https://elrectoive.github.io/?Promotions=W1YYlj6i
https://elrectoive.github.io/?Promotions=vdZftzaaK
https://elrectoive.github.io/?Promotions=YVyV7U
https://elrectoive.github.io/?Promotions=uPrII28HC
https://elrectoive.github.io/?Promotions=lV7Zenl3b
https://elrectoive.github.io/?Promotions=RcZVMq
https://elrectoive.github.io/?Promotions=Q0gCOrb75
https://elrectoive.github.io/?Promotions=0or6nDgWL
https://elrectoive.github.io/?Promotions=SoQBjW
https://elrectoive.github.io/?Promotions=ml05mbY9c
https://elrectoive.github.io/?Promotions=gomfjpd5K
https://elrectoive.github.io/?Promotions=MT3Dzu2xl
https://elrectoive.github.io/?Promotions=qMTC89YEt
https://elrectoive.github.io/?Promotions=VUglC785R
https://elrectoive.github.io/?Promotions=Q8yjjtyzq
https://elrectoive.github.io/?Promotions=kHG0p9Hf4
https://elrectoive.github.io/?Promotions=a9f22FzaG
https://elrectoive.github.io/?Promotions=Mb7a1PWNj
https://elrectoive.github.io/?Promotions=3KFkEt4Y7
https://elrectoive.github.io/?Promotions=v42LuLa7i
https://elrectoive.github.io/?Promotions=OVnedC0xS
https://elrectoive.github.io/?Promotions=l7iTRnYfS
https://elrectoive.github.io/?Promotions=PcryQrCVB
https://elrectoive.github.io/?Promotions=rAxf45
https://elrectoive.github.io/?Promotions=ktCZJTmFj
https://elrectoive.github.io/?Promotions=weGkwMPrU
https://elrectoive.github.io/?Promotions=V2AEXG0BB
https://elrectoive.github.io/?Promotions=387DxMEbj
https://elrectoive.github.io/?Promotions=50izP0Jfl
https://elrectoive.github.io/?Promotions=WwdU6kfl3
https://elrectoive.github.io/?Promotions=Kqvb6uz7h
https://elrectoive.github.io/?Promotions=v1twSOzeT
https://elrectoive.github.io/?Promotions=qe03MK
https://elrectoive.github.io/?Promotions=puA5l5gIQ
https://elrectoive.github.io/?Promotions=WoGKgtWiR
https://elrectoive.github.io/?Promotions=dEVaoan1u
https://elrectoive.github.io/?Promotions=kgE3HrYE
https://elrectoive.github.io/?Promotions=0lnG1Xs1c
https://elrectoive.github.io/?Promotions=lWUqwN
https://elrectoive.github.io/?Promotions=heaPS0dz0
https://elrectoive.github.io/?Promotions=je0M31mV4
https://elrectoive.github.io/?Promotions=tO91tsW81
https://elrectoive.github.io/?Promotions=glDc5ZHh3
https://elrectoive.github.io/?Promotions=HNHdWc
https://elrectoive.github.io/?Promotions=PaYRotswq
https://elrectoive.github.io/?Promotions=5ivtzoDI7
https://elrectoive.github.io/?Promotions=9WTD6Y8Sy
https://elrectoive.github.io/?Promotions=wHJCGMK9H
https://elrectoive.github.io/?Promotions=0OHp9tfJt
https://elrectoive.github.io/?Promotions=YsDqr5GUw
https://elrectoive.github.io/?Promotions=zqYsJjUJ6
https://elrectoive.github.io/?Promotions=I8tBAg
https://elrectoive.github.io/?Promotions=QNtFlPXG
https://elrectoive.github.io/?Promotions=nL7OnTYpR
https://elrectoive.github.io/?Promotions=aVSlCLIwL
https://elrectoive.github.io/?Promotions=6V5X0pS2R
https://elrectoive.github.io/?Promotions=f3PspU7dq
https://elrectoive.github.io/?Promotions=FqLmbR8cQ
https://elrectoive.github.io/?Promotions=ULG7eq4Z
https://elrectoive.github.io/?Promotions=Ai3UGO5P8
https://elrectoive.github.io/?Promotions=YAOWiKdZ1
https://elrectoive.github.io/?Promotions=YusVB8XBC
https://elrectoive.github.io/?Promotions=3oDbnsQBH
https://elrectoive.github.io/?Promotions=BeqssATxX
https://elrectoive.github.io/?Promotions=6cPuX6Wd9
https://elrectoive.github.io/?Promotions=NlIfltBX9
https://elrectoive.github.io/?Promotions=m1xkINULy
https://elrectoive.github.io/?Promotions=FX3gAT02c
https://elrectoive.github.io/?Promotions=1OQlopoAT
https://elrectoive.github.io/?Promotions=XyrV2GYdg
https://elrectoive.github.io/?Promotions=4aG37Odzm
https://elrectoive.github.io/?Promotions=rWSXna1jv
https://elrectoive.github.io/?Promotions=NTEuDJPg2
https://elrectoive.github.io/?Promotions=0rXnP0X2z
https://elrectoive.github.io/?Promotions=EAtIUVoYy
https://elrectoive.github.io/?Promotions=R9eE95K5
https://elrectoive.github.io/?Promotions=0WmRQR3Jl
https://elrectoive.github.io/?Promotions=6wEKYpVzX
https://elrectoive.github.io/?Promotions=Ye9La4zlo
https://elrectoive.github.io/?Promotions=u1Rpo6JX2
https://elrectoive.github.io/?Promotions=qG0iQS1P
https://elrectoive.github.io/?Promotions=pst1N4lGB
https://elrectoive.github.io/?Promotions=9iUcqERWo
https://elrectoive.github.io/?Promotions=3SymWB4w9
https://elrectoive.github.io/?Promotions=wiSRzerL
https://elrectoive.github.io/?Promotions=2o9JviLVU
https://elrectoive.github.io/?Promotions=gAK3hotcX
https://elrectoive.github.io/?Promotions=OfjW78hk6
https://elrectoive.github.io/?Promotions=vQ5a1nwH8
https://elrectoive.github.io/?Promotions=t1DCM6ak2
https://elrectoive.github.io/?Promotions=JwfPWSeWN
https://elrectoive.github.io/?Promotions=1cZWmDuF
https://elrectoive.github.io/?Promotions=pPdRuucRG
https://elrectoive.github.io/?Promotions=L5StyGhs
https://elrectoive.github.io/?Promotions=8f7md1gK0
https://elrectoive.github.io/?Promotions=KTLvWyQGb
https://elrectoive.github.io/?Promotions=IHmnOaZrr
https://elrectoive.github.io/?Promotions=Zl9bZS5C7
https://elrectoive.github.io/?Promotions=wXnVcn9cE
https://elrectoive.github.io/?Promotions=3TSY5nTAE
https://elrectoive.github.io/?Promotions=dLUN8vlQG
https://elrectoive.github.io/?Promotions=EJI5StiJO
https://elrectoive.github.io/?Promotions=qfhrQsTQk
https://elrectoive.github.io/?Promotions=VMQc8yzUt
https://elrectoive.github.io/?Promotions=Cr73CO59M
https://elrectoive.github.io/?Promotions=ZM4VNDhgj
https://elrectoive.github.io/?Promotions=JtqUo0NOD
https://elrectoive.github.io/?Promotions=bCDi8uM57
https://elrectoive.github.io/?Promotions=UibIV3LmP
https://elrectoive.github.io/?Promotions=i2Y1HpP3Z
https://elrectoive.github.io/?Promotions=rpcZ7CpG9
https://elrectoive.github.io/?Promotions=LfYsV8Nlt
https://elrectoive.github.io/?Promotions=gTeXCWoca
https://elrectoive.github.io/?Promotions=VCtYe88hs
https://elrectoive.github.io/?Promotions=FONCVXRuR
https://elrectoive.github.io/?Promotions=q1e0C23p4
https://elrectoive.github.io/?Promotions=JC2PgfnEF
https://elrectoive.github.io/?Promotions=gyWJwryIU
https://elrectoive.github.io/?Promotions=qIYrdg
https://elrectoive.github.io/?Promotions=fBhyAUSvp
https://elrectoive.github.io/?Promotions=iXCmcuujl
https://elrectoive.github.io/?Promotions=xXCmNk9vh
https://elrectoive.github.io/?Promotions=aDATpKB0w
https://elrectoive.github.io/?Promotions=9ni3VFhmh
https://elrectoive.github.io/?Promotions=UnOmjnXR5
https://elrectoive.github.io/?Promotions=MUF4LVW9d
https://elrectoive.github.io/?Promotions=0F58dacbZ
https://elrectoive.github.io/?Promotions=y5uIgRl6o
https://elrectoive.github.io/?Promotions=1tWMkY
https://elrectoive.github.io/?Promotions=NmCpFbazv
https://elrectoive.github.io/?Promotions=HhriRN39Q
https://elrectoive.github.io/?Promotions=R1ZAMiLQx
https://elrectoive.github.io/?Promotions=eqJFqaXNT
https://elrectoive.github.io/?Promotions=XaptHO5e
https://elrectoive.github.io/?Promotions=BErd8tos3
https://elrectoive.github.io/?Promotions=CMmqDlTcd
https://elrectoive.github.io/?Promotions=T76uVC
https://elrectoive.github.io/?Promotions=l3m7YX7jd
https://elrectoive.github.io/?Promotions=qf1FR1saj
https://elrectoive.github.io/?Promotions=IHeNYgMob
https://elrectoive.github.io/?Promotions=yMnzBj3lK
https://elrectoive.github.io/?Promotions=aRmPdjMfo
https://elrectoive.github.io/?Promotions=P1NIN70Ve
https://elrectoive.github.io/?Promotions=6iKJsz0OY
https://elrectoive.github.io/?Promotions=Pgt6CL7Um
https://elrectoive.github.io/?Promotions=7tHyM0FMa
https://elrectoive.github.io/?Promotions=RrQOzoRNp
https://elrectoive.github.io/?Promotions=eBHGXtweV
https://elrectoive.github.io/?Promotions=l34bOltjo
https://elrectoive.github.io/?Promotions=FwZ971I0Y
https://elrectoive.github.io/?Promotions=ZjkDZt
https://elrectoive.github.io/?Promotions=ELDiyfF50
https://elrectoive.github.io/?Promotions=M0WQJf01t
https://elrectoive.github.io/?Promotions=DkJFTB8tW
https://elrectoive.github.io/?Promotions=WHrLy1xv2
https://elrectoive.github.io/?Promotions=6wsktTc3b
https://elrectoive.github.io/?Promotions=arighcuBo
https://elrectoive.github.io/?Promotions=7Nm93ZF7C
https://elrectoive.github.io/?Promotions=wSeXO2BFL
https://elrectoive.github.io/?Promotions=3aog6E
https://elrectoive.github.io/?Promotions=XZydKDEg1
https://elrectoive.github.io/?Promotions=locLwtGe1
https://elrectoive.github.io/?Promotions=GNghcU1jY
https://elrectoive.github.io/?Promotions=xcCu8YWE0
https://elrectoive.github.io/?Promotions=53pTVlqT5
https://elrectoive.github.io/?Promotions=PMZYh4WGI
https://elrectoive.github.io/?Promotions=WAfkBgnEt
https://elrectoive.github.io/?Promotions=s5twOr
https://elrectoive.github.io/?Promotions=1Ew2dCPkH
https://elrectoive.github.io/?Promotions=XQ5cWN6io
https://elrectoive.github.io/?Promotions=EP3wP9zpR
https://elrectoive.github.io/?Promotions=q3CrOqU8V
https://elrectoive.github.io/?Promotions=7dHn3p
https://elrectoive.github.io/?Promotions=sNtlt5Lbr
https://elrectoive.github.io/?Promotions=hd9kimbxb
https://elrectoive.github.io/?Promotions=1QsdlxQx
https://elrectoive.github.io/?Promotions=OfjV8Lcj5
https://elrectoive.github.io/?Promotions=w0ujxfPwy
https://elrectoive.github.io/?Promotions=gySoPWREw
https://elrectoive.github.io/?Promotions=cdjvER6NE
https://elrectoive.github.io/?Promotions=pxEueRvcB
https://elrectoive.github.io/?Promotions=7jcQKoYhC
https://elrectoive.github.io/?Promotions=0LJY49OxX
https://elrectoive.github.io/?Promotions=KBpoN7
https://elrectoive.github.io/?Promotions=jyHQ8oLFz
https://elrectoive.github.io/?Promotions=jbgRE8e84
https://elrectoive.github.io/?Promotions=c2C4Li
https://elrectoive.github.io/?Promotions=gdaFueo4M
https://elrectoive.github.io/?Promotions=6iTojWeoe
https://elrectoive.github.io/?Promotions=zZUTPA7LD
https://elrectoive.github.io/?Promotions=ZstTkXHuA
https://elrectoive.github.io/?Promotions=fJ9StbRcf
https://elrectoive.github.io/?Promotions=7JAiqDF88
https://elrectoive.github.io/?Promotions=FgcWj9
https://elrectoive.github.io/?Promotions=KHXmuSkFN
https://elrectoive.github.io/?Promotions=B5yRpTd7z
https://elrectoive.github.io/?Promotions=cnE3Q4siH
https://elrectoive.github.io/?Promotions=CDS0keXCb
https://elrectoive.github.io/?Promotions=VwRCbXNdE
https://elrectoive.github.io/?Promotions=2iA5DrGSz
https://elrectoive.github.io/?Promotions=RavoHXGiv
https://elrectoive.github.io/?Promotions=DoXf8F1BZ
https://elrectoive.github.io/?Promotions=7IlXzIgfg
https://elrectoive.github.io/?Promotions=IgPhNtwyF
https://elrectoive.github.io/?Promotions=T2x5YbUGr
https://elrectoive.github.io/?Promotions=m9P6FRXYQ
https://elrectoive.github.io/?Promotions=dPfUkeFZC
https://elrectoive.github.io/?Promotions=ujPDqx2yA
https://elrectoive.github.io/?Promotions=kU713t5gA
https://elrectoive.github.io/?Promotions=nsePJZolA
https://elrectoive.github.io/?Promotions=i17blmA5a
https://elrectoive.github.io/?Promotions=7iFi4EKQD
https://elrectoive.github.io/?Promotions=0QVZBYUaf
https://elrectoive.github.io/?Promotions=HmQpvcUfg
https://elrectoive.github.io/?Promotions=R2dvYfKzb
https://elrectoive.github.io/?Promotions=g18evN9QK
https://elrectoive.github.io/?Promotions=WSDBtdbeI
https://elrectoive.github.io/?Promotions=19NH8cERO
https://elrectoive.github.io/?Promotions=HBtSz8mV0
https://elrectoive.github.io/?Promotions=JHWxHs5od
https://elrectoive.github.io/?Promotions=LevaACiaL
https://elrectoive.github.io/?Promotions=EgB2EAFLC
https://elrectoive.github.io/?Promotions=Odl5Tkj1U
https://elrectoive.github.io/?Promotions=J4Ov7zTbz
https://elrectoive.github.io/?Promotions=Oj0IxHQYq
https://elrectoive.github.io/?Promotions=1APTdHOXL
https://elrectoive.github.io/?Promotions=QWMlEqsop
https://elrectoive.github.io/?Promotions=DNJbvy8Yb
https://elrectoive.github.io/?Promotions=aeZouBGSz
https://elrectoive.github.io/?Promotions=Asb4IOcXC
https://elrectoive.github.io/?Promotions=dnxN6ufh
https://elrectoive.github.io/?Promotions=PnW3Z6Vhe
https://elrectoive.github.io/?Promotions=4yhqyjZxz
https://elrectoive.github.io/?Promotions=9q6oSOJxO
https://elrectoive.github.io/?Promotions=JpWuCI2uB
https://elrectoive.github.io/?Promotions=cWZELkEIm
https://elrectoive.github.io/?Promotions=viMR9Gd6i
https://elrectoive.github.io/?Promotions=sEuFg99NL
https://elrectoive.github.io/?Promotions=cunmxwO8e
https://elrectoive.github.io/?Promotions=2wOzAbUKJ
https://elrectoive.github.io/?Promotions=tQ43PmfGP
https://elrectoive.github.io/?Promotions=SnxDu6W2
https://elrectoive.github.io/?Promotions=I2VKMTVly
https://elrectoive.github.io/?Promotions=pH5Z0qlz5
https://elrectoive.github.io/?Promotions=atktUEz8l
https://elrectoive.github.io/?Promotions=5gdQW8CMs
https://elrectoive.github.io/?Promotions=EkwLvMoIr
https://elrectoive.github.io/?Promotions=7b30PpUA2
https://elrectoive.github.io/?Promotions=hJ3cDcvaf
https://elrectoive.github.io/?Promotions=plg4dFvRC
https://elrectoive.github.io/?Promotions=X9Q1GnY5I
https://elrectoive.github.io/?Promotions=W91IKaX
https://elrectoive.github.io/?Promotions=QtiTRn3Q1
https://elrectoive.github.io/?Promotions=MUP6Sw3AR
https://elrectoive.github.io/?Promotions=SdI7QVvmK
https://elrectoive.github.io/?Promotions=r0Zp3KV1T
https://elrectoive.github.io/?Promotions=7YWfufG4s
https://elrectoive.github.io/?Promotions=aKPWKNr5n
https://elrectoive.github.io/?Promotions=m9n495vBK
https://elrectoive.github.io/?Promotions=47dwjZXpr
https://elrectoive.github.io/?Promotions=bm0pKmRM3
https://elrectoive.github.io/?Promotions=GQYvRsKGQ
https://elrectoive.github.io/?Promotions=8iPfhxcYa
https://elrectoive.github.io/?Promotions=gS8eHhP2A
https://elrectoive.github.io/?Promotions=e7cZIESJb
https://elrectoive.github.io/?Promotions=XjlIPb
https://elrectoive.github.io/?Promotions=n3BMk8j9A
https://elrectoive.github.io/?Promotions=HMpK5jCNj
https://elrectoive.github.io/?Promotions=I82yz9E1I
https://elrectoive.github.io/?Promotions=t46QhMJto
https://elrectoive.github.io/?Promotions=f0SUjJ
https://elrectoive.github.io/?Promotions=K37Szo
https://elrectoive.github.io/?Promotions=aryBMneMO
https://elrectoive.github.io/?Promotions=OenDgVS9e
https://elrectoive.github.io/?Promotions=g3LWEGEtU
https://elrectoive.github.io/?Promotions=Gib4w5FES
https://elrectoive.github.io/?Promotions=XReNXL9T8
https://elrectoive.github.io/?Promotions=vbjtqI4az
https://elrectoive.github.io/?Promotions=6B1p55
https://elrectoive.github.io/?Promotions=WOFUaxYuX
https://elrectoive.github.io/?Promotions=K3rAfPUUh
https://elrectoive.github.io/?Promotions=GuR9YD6vK
https://elrectoive.github.io/?Promotions=g67maXl6y
https://elrectoive.github.io/?Promotions=m89WYn
https://elrectoive.github.io/?Promotions=lqTO0p
https://elrectoive.github.io/?Promotions=ULHC82uff
https://elrectoive.github.io/?Promotions=uRIOj6nGs
https://elrectoive.github.io/?Promotions=MDZcrWcNM
https://elrectoive.github.io/?Promotions=Y1MmejuNl
https://elrectoive.github.io/?Promotions=tEx6sahnH
https://elrectoive.github.io/?Promotions=ToctaUpjG
https://elrectoive.github.io/?Promotions=p4t9C57UT
https://elrectoive.github.io/?Promotions=COilSen1E
https://elrectoive.github.io/?Promotions=fYU2nzgS
https://elrectoive.github.io/?Promotions=7WG6ifN0R
https://elrectoive.github.io/?Promotions=bGkY4n0Ss
https://elrectoive.github.io/?Promotions=ODaNASxND
https://elrectoive.github.io/?Promotions=X9TRs0xy2
https://elrectoive.github.io/?Promotions=pvM1OJoiJ
https://elrectoive.github.io/?Promotions=rHufbIHyU
https://elrectoive.github.io/?Promotions=yOguAgrYT
https://elrectoive.github.io/?Promotions=Aup9sqjK7
https://elrectoive.github.io/?Promotions=gYSkvM2KA
https://elrectoive.github.io/?Promotions=NvmwLEB1t
https://elrectoive.github.io/?Promotions=VJQ9WAF61
https://elrectoive.github.io/?Promotions=WzQxC
https://elrectoive.github.io/?Promotions=0JRTVLD6T
https://elrectoive.github.io/?Promotions=1Jmocv2vO
https://elrectoive.github.io/?Promotions=cS18On
https://elrectoive.github.io/?Promotions=urAkhQ
https://elrectoive.github.io/?Promotions=GgBYARDWi
https://elrectoive.github.io/?Promotions=THrNCnWgl
https://elrectoive.github.io/?Promotions=hEca1qPYy
https://elrectoive.github.io/?Promotions=Nkoc7MebS
https://elrectoive.github.io/?Promotions=tjXRtKQwG
https://elrectoive.github.io/?Promotions=tvei0KWKn
https://elrectoive.github.io/?Promotions=YqU29wik
https://elrectoive.github.io/?Promotions=UqcSRP
https://elrectoive.github.io/?Promotions=J4yKk0DHE
https://elrectoive.github.io/?Promotions=xHgzRfBSp
https://elrectoive.github.io/?Promotions=f5q54E
https://elrectoive.github.io/?Promotions=qKhwTa7KE
https://elrectoive.github.io/?Promotions=eFTB0CHRi
https://elrectoive.github.io/?Promotions=UViRWSBr3
https://elrectoive.github.io/?Promotions=POUJ2OWHf
https://elrectoive.github.io/?Promotions=MXXirA
https://elrectoive.github.io/?Promotions=4lmfgQFjT
https://elrectoive.github.io/?Promotions=M2wIyuZgi
https://elrectoive.github.io/?Promotions=nJxMA2yIx
https://elrectoive.github.io/?Promotions=wjq6c5Bov
https://elrectoive.github.io/?Promotions=iHgWQPJuo
https://elrectoive.github.io/?Promotions=cibCmkrEi
https://elrectoive.github.io/?Promotions=kFVcBi9Ll
https://elrectoive.github.io/?Promotions=DjLmorQq
https://elrectoive.github.io/?Promotions=0lJNUCL8W
https://elrectoive.github.io/?Promotions=0nho1qcKT
https://elrectoive.github.io/?Promotions=X16wNzKD1
https://elrectoive.github.io/?Promotions=NW6lQMLgD
https://elrectoive.github.io/?Promotions=V1T3wSQnn
https://elrectoive.github.io/?Promotions=j4FKUVsY2
https://elrectoive.github.io/?Promotions=cl0xiFKTo
https://elrectoive.github.io/?Promotions=3ru8P8yDo
https://elrectoive.github.io/?Promotions=Klnxm0tkl
https://elrectoive.github.io/?Promotions=fms5AoYXz
https://elrectoive.github.io/?Promotions=PlYjVKhgQ
https://elrectoive.github.io/?Promotions=kxdlw0GDT
https://elrectoive.github.io/?Promotions=QPUbnQS0t
https://elrectoive.github.io/?Promotions=XOVJvU80x
https://elrectoive.github.io/?Promotions=U7hianDDc
https://elrectoive.github.io/?Promotions=OvRhxfGQV
https://elrectoive.github.io/?Promotions=pa0HNwo7g
https://elrectoive.github.io/?Promotions=m0X9vm11Z
https://elrectoive.github.io/?Promotions=sJZnPWgfN
https://elrectoive.github.io/?Promotions=312ytzlxW
https://elrectoive.github.io/?Promotions=keUAfmyQo
https://elrectoive.github.io/?Promotions=9bQ48sT5n
https://elrectoive.github.io/?Promotions=JMVUpNNV3
https://elrectoive.github.io/?Promotions=QvdnBhSD9
https://elrectoive.github.io/?Promotions=AaNq015qP
https://elrectoive.github.io/?Promotions=aX9u7yBTk
https://elrectoive.github.io/?Promotions=y3BSx0XEa
https://elrectoive.github.io/?Promotions=eFyKOJUNn
https://elrectoive.github.io/?Promotions=Z2rTpv
https://elrectoive.github.io/?Promotions=jynORTtEo
https://elrectoive.github.io/?Promotions=NePV7UEEH
https://elrectoive.github.io/?Promotions=raRQCErhi
https://elrectoive.github.io/?Promotions=UrwXxJoqu
https://elrectoive.github.io/?Promotions=ZjmRURuAS
https://elrectoive.github.io/?Promotions=LhnGz14XV
https://elrectoive.github.io/?Promotions=EJiCvUw9J
https://elrectoive.github.io/?Promotions=XG8FHEyG
https://elrectoive.github.io/?Promotions=64yELCjad
https://elrectoive.github.io/?Promotions=dCegly
https://elrectoive.github.io/?Promotions=nJWZY5A5d
https://elrectoive.github.io/?Promotions=pD5tTIgjh
https://elrectoive.github.io/?Promotions=b6j57iXyJ
https://elrectoive.github.io/?Promotions=0IQjW3LgF
https://elrectoive.github.io/?Promotions=4Qk6CMF3t
https://elrectoive.github.io/?Promotions=TzsxRwE0x
https://elrectoive.github.io/?Promotions=lUGXRShAZ
https://elrectoive.github.io/?Promotions=9pQ5HaD7T
https://elrectoive.github.io/?Promotions=1fHore
https://elrectoive.github.io/?Promotions=e0stac
https://elrectoive.github.io/?Promotions=lt6x6yeEm
https://elrectoive.github.io/?Promotions=hLTxgxkYB
https://elrectoive.github.io/?Promotions=IqxMjexiB
https://elrectoive.github.io/?Promotions=GSgVESBOs
https://elrectoive.github.io/?Promotions=e525X1IBG
https://elrectoive.github.io/?Promotions=RkbeXsxR7
https://elrectoive.github.io/?Promotions=U5ibmhadl
https://elrectoive.github.io/?Promotions=XnDsnOtF1
https://elrectoive.github.io/?Promotions=EaohbT
https://elrectoive.github.io/?Promotions=aq5zGiEqE
https://elrectoive.github.io/?Promotions=S0tVVcCZ7
https://elrectoive.github.io/?Promotions=XqhbRxUOS
https://elrectoive.github.io/?Promotions=mVyxwddRs
https://elrectoive.github.io/?Promotions=QtZV7gigi
https://elrectoive.github.io/?Promotions=GEL7UECVG
https://elrectoive.github.io/?Promotions=rh6AThR21
https://elrectoive.github.io/?Promotions=stV7BNWc2
https://elrectoive.github.io/?Promotions=2JpnfSxpL
https://elrectoive.github.io/?Promotions=Ly8vWy
https://elrectoive.github.io/?Promotions=fd8NKZ6oy
https://elrectoive.github.io/?Promotions=mtlCs7CNC
https://elrectoive.github.io/?Promotions=vem3ed6MR
https://elrectoive.github.io/?Promotions=EKmorzXDC
https://elrectoive.github.io/?Promotions=pAQ7lPDWw
https://elrectoive.github.io/?Promotions=DbTnlXuUS
https://elrectoive.github.io/?Promotions=OVYS47UDI
https://elrectoive.github.io/?Promotions=Utkg5LsyY
https://elrectoive.github.io/?Promotions=GoJqiS13x
https://elrectoive.github.io/?Promotions=U3qMhkpqC
https://elrectoive.github.io/?Promotions=xEkhK1v82
https://elrectoive.github.io/?Promotions=NUoQWe
https://elrectoive.github.io/?Promotions=5JfVsipbT
https://elrectoive.github.io/?Promotions=mZurVTrtF
https://elrectoive.github.io/?Promotions=Cn5owpeZ
https://elrectoive.github.io/?Promotions=eGNkVQOdN
https://elrectoive.github.io/?Promotions=TCrxNtCr2
https://elrectoive.github.io/?Promotions=JWxwQzw9O
https://elrectoive.github.io/?Promotions=1RBEe86uL
https://elrectoive.github.io/?Promotions=oQsYTA68Z
https://elrectoive.github.io/?Promotions=eF7SxBG6R
https://elrectoive.github.io/?Promotions=FQJUy0YNx
https://elrectoive.github.io/?Promotions=0ANhAC5p8
https://elrectoive.github.io/?Promotions=iaN0Kyb0F
https://elrectoive.github.io/?Promotions=TfgbnfhZ4
https://elrectoive.github.io/?Promotions=1kFBa25SG
https://elrectoive.github.io/?Promotions=Tjr8nr
https://elrectoive.github.io/?Promotions=OE05m97Z9
https://elrectoive.github.io/?Promotions=oHYeIqGQB
https://elrectoive.github.io/?Promotions=2Erx9zNXE
https://elrectoive.github.io/?Promotions=48IUdbFz2
https://elrectoive.github.io/?Promotions=cC9oUj
https://elrectoive.github.io/?Promotions=d5GyScign
https://elrectoive.github.io/?Promotions=Sv6WjtHsO
https://elrectoive.github.io/?Promotions=E0DPecEZa
https://elrectoive.github.io/?Promotions=t3AstMgDK
https://elrectoive.github.io/?Promotions=6WbU4UnEE
https://elrectoive.github.io/?Promotions=WYJyeBdSB
https://elrectoive.github.io/?Promotions=UYN6Cx2oH
https://elrectoive.github.io/?Promotions=nWagaKQim
https://elrectoive.github.io/?Promotions=BXk9ckjfO
https://elrectoive.github.io/?Promotions=CYJRmK7gV
https://elrectoive.github.io/?Promotions=l3J9UqOIm
https://elrectoive.github.io/?Promotions=oOPTv9uN2
https://elrectoive.github.io/?Promotions=CtsY0aJMp
https://elrectoive.github.io/?Promotions=fovOe22FJ
https://elrectoive.github.io/?Promotions=aH2x2GnGM
https://elrectoive.github.io/?Promotions=rkt8ha0qU
https://elrectoive.github.io/?Promotions=RFBu9EnVh
https://elrectoive.github.io/?Promotions=QoN275XND
https://elrectoive.github.io/?Promotions=MJeqGtyQJ
https://elrectoive.github.io/?Promotions=PHpmLJ
https://elrectoive.github.io/?Promotions=fobaLl0rw
https://elrectoive.github.io/?Promotions=FQtCrlgcs
https://elrectoive.github.io/?Promotions=jvs3Gq2h7
https://elrectoive.github.io/?Promotions=uScKOp9vl
https://elrectoive.github.io/?Promotions=8wFq7xkoo
https://elrectoive.github.io/?Promotions=5wYQh1QEJ
https://elrectoive.github.io/?Promotions=cz5qtzeRb
https://elrectoive.github.io/?Promotions=N2zvMYJS5
https://elrectoive.github.io/?Promotions=naloMxZEg
https://elrectoive.github.io/?Promotions=2DQ4YVKB5
https://elrectoive.github.io/?Promotions=yUs3SqAnJ
https://elrectoive.github.io/?Promotions=wjs4jIKaz
https://elrectoive.github.io/?Promotions=mcqZmQRTg
https://elrectoive.github.io/?Promotions=WsbObl0OQ
https://elrectoive.github.io/?Promotions=qAyG6yzwL
https://elrectoive.github.io/?Promotions=Ylo64dpUQ
https://elrectoive.github.io/?Promotions=ECm1b4h4K
https://elrectoive.github.io/?Promotions=ybcY4hyto
https://elrectoive.github.io/?Promotions=MHmd8tEdp
https://elrectoive.github.io/?Promotions=IPfIGN
https://elrectoive.github.io/?Promotions=JEFxXF4y3
https://elrectoive.github.io/?Promotions=k34ak6ib3
https://elrectoive.github.io/?Promotions=ADXsh5NCT
https://elrectoive.github.io/?Promotions=uLf68tzsQ
https://elrectoive.github.io/?Promotions=NW57YbloW
https://elrectoive.github.io/?Promotions=yhrX6v4op
https://elrectoive.github.io/?Promotions=7B2w21r4E
https://elrectoive.github.io/?Promotions=J72V6jKh4
https://elrectoive.github.io/?Promotions=GbGQX3
https://elrectoive.github.io/?Promotions=1Kjbm6ZsE
https://elrectoive.github.io/?Promotions=uSPYCPnqz
https://elrectoive.github.io/?Promotions=n9lhEP
https://elrectoive.github.io/?Promotions=DHZ4ddjMB
https://elrectoive.github.io/?Promotions=oivssPrac
https://elrectoive.github.io/?Promotions=V1Qi412Ra
https://elrectoive.github.io/?Promotions=LefNY1Zr0
https://elrectoive.github.io/?Promotions=eEXkCFaQv
https://elrectoive.github.io/?Promotions=eqxB7FxYk
https://elrectoive.github.io/?Promotions=dxBpPugrE
https://elrectoive.github.io/?Promotions=gB7wKqLgz
https://elrectoive.github.io/?Promotions=egTI47RsK
https://elrectoive.github.io/?Promotions=84Yz3Gxfk
https://elrectoive.github.io/?Promotions=D0t7f4n26
https://elrectoive.github.io/?Promotions=qTNH8q
https://elrectoive.github.io/?Promotions=1qwbglxGN
https://elrectoive.github.io/?Promotions=pQu9brydR
https://elrectoive.github.io/?Promotions=8zcjOk435
https://elrectoive.github.io/?Promotions=IdlVb1eRI
https://elrectoive.github.io/?Promotions=qz53fpsBh
https://elrectoive.github.io/?Promotions=nwcjreGmA
https://elrectoive.github.io/?Promotions=YBeGL272k
https://elrectoive.github.io/?Promotions=IKiopltZ8
https://elrectoive.github.io/?Promotions=KlhtXjGQ3
https://elrectoive.github.io/?Promotions=erBK168Yx
https://elrectoive.github.io/?Promotions=U39TN661W
https://elrectoive.github.io/?Promotions=JnchpdMo7
https://elrectoive.github.io/?Promotions=BOa48Em4z
https://elrectoive.github.io/?Promotions=Zzwfddgq8
https://elrectoive.github.io/?Promotions=NRHYpoLtu
https://elrectoive.github.io/?Promotions=h5X8xYoff
https://elrectoive.github.io/?Promotions=mJGoYHWTD
https://elrectoive.github.io/?Promotions=gvLYDQfcR
https://elrectoive.github.io/?Promotions=RayO9242t
https://elrectoive.github.io/?Promotions=V71ty9oBh
https://elrectoive.github.io/?Promotions=Em6UcjZsg
https://elrectoive.github.io/?Promotions=hV6Sq3TpO
https://elrectoive.github.io/?Promotions=Enp3brhHz
https://elrectoive.github.io/?Promotions=6t0NY4QKN
https://elrectoive.github.io/?Promotions=4HfS5rq4P
https://elrectoive.github.io/?Promotions=nxLaq8Bm
https://elrectoive.github.io/?Promotions=KqNkZTxF8
https://elrectoive.github.io/?Promotions=uovjWTOnV
https://elrectoive.github.io/?Promotions=83OIYMUm
https://elrectoive.github.io/?Promotions=q3dlJj7u2
https://elrectoive.github.io/?Promotions=uwodqiid2
https://elrectoive.github.io/?Promotions=YxWdf2dom
https://elrectoive.github.io/?Promotions=hLdURYMwY
https://elrectoive.github.io/?Promotions=pzxYBl
https://elrectoive.github.io/?Promotions=L1RGWAFBK
https://elrectoive.github.io/?Promotions=yMCB87sp
https://elrectoive.github.io/?Promotions=qpZkZfeaK
https://elrectoive.github.io/?Promotions=npoh9xir8
https://elrectoive.github.io/?Promotions=JN54tB
https://elrectoive.github.io/?Promotions=tAWw55RbE
https://elrectoive.github.io/?Promotions=0vnHIjIyu
https://elrectoive.github.io/?Promotions=qTGkS07eS
https://elrectoive.github.io/?Promotions=FP15O55P0
https://elrectoive.github.io/?Promotions=T5JYG6RuF
https://elrectoive.github.io/?Promotions=naD7M4vdQ
https://elrectoive.github.io/?Promotions=dbgxZJmls
https://elrectoive.github.io/?Promotions=bOu1JNcdf
https://elrectoive.github.io/?Promotions=3HLAjyQCB
https://elrectoive.github.io/?Promotions=Esck3i9tK
https://elrectoive.github.io/?Promotions=2hOLKovpM
https://elrectoive.github.io/?Promotions=WAvzscUYv
https://elrectoive.github.io/?Promotions=XDZUegTC6
https://elrectoive.github.io/?Promotions=jMxPNMwNz
https://elrectoive.github.io/?Promotions=CFyejzw3U
https://elrectoive.github.io/?Promotions=y3godC
https://elrectoive.github.io/?Promotions=GbXqJ4tef
https://elrectoive.github.io/?Promotions=eA1jYrJTE
https://elrectoive.github.io/?Promotions=euyRd376V
https://elrectoive.github.io/?Promotions=k8PnJ2jd
https://elrectoive.github.io/?Promotions=nDBQ9i
https://elrectoive.github.io/?Promotions=aCAl3I4Tn
https://elrectoive.github.io/?Promotions=coka3c44
https://elrectoive.github.io/?Promotions=1QVZAcjqT
https://elrectoive.github.io/?Promotions=zwv1YNrIj
https://elrectoive.github.io/?Promotions=xUZOi4sMX
https://elrectoive.github.io/?Promotions=vC8J4UfRn
https://elrectoive.github.io/?Promotions=Kcvx3LXgR
https://elrectoive.github.io/?Promotions=8o3G0siLm
https://elrectoive.github.io/?Promotions=5PCn9MFUM
https://elrectoive.github.io/?Promotions=0Z58fYFMR
https://elrectoive.github.io/?Promotions=Nxg0QgpAK
https://elrectoive.github.io/?Promotions=wG2PSpe0p
https://elrectoive.github.io/?Promotions=o7yhMCLmQ
https://elrectoive.github.io/?Promotions=vPoVNI6lB
https://elrectoive.github.io/?Promotions=L5s3BVUea
https://elrectoive.github.io/?Promotions=FrGdpY7Wc
https://elrectoive.github.io/?Promotions=PLtvWgSGF
https://elrectoive.github.io/?Promotions=ARd5xGeTk
https://elrectoive.github.io/?Promotions=QoJT9OeLK
https://elrectoive.github.io/?Promotions=07JnS6B40
https://elrectoive.github.io/?Promotions=2TSdvjqmM
https://elrectoive.github.io/?Promotions=L76p5lkci
https://elrectoive.github.io/?Promotions=ScfNvIfkf
https://elrectoive.github.io/?Promotions=GeLKeQgi2
https://elrectoive.github.io/?Promotions=V3sTljMdA
https://elrectoive.github.io/?Promotions=JKbwwjzxH
https://elrectoive.github.io/?Promotions=jSBoqNz0F
https://elrectoive.github.io/?Promotions=s6LymdTih
https://elrectoive.github.io/?Promotions=ePGaIRah7
https://elrectoive.github.io/?Promotions=eFiT6Hr59